
OS:Version,
  {7e84bc43-4a0e-4ae5-867d-d1d50dabf57c}, !- Handle
  2.3.0;                                  !- Version Identifier

OS:RunPeriod,
  {c0b6056f-a18f-412b-9cbf-10bd0a323f40}, !- Handle
  Run Period 1,                           !- Name
  1,                                      !- Begin Month
  1,                                      !- Begin Day of Month
  12,                                     !- End Month
  31,                                     !- End Day of Month
  ,                                       !- Use Weather File Holidays and Special Days
  ,                                       !- Use Weather File Daylight Saving Period
  ,                                       !- Apply Weekend Holiday Rule
  ,                                       !- Use Weather File Rain Indicators
  ,                                       !- Use Weather File Snow Indicators
  ;                                       !- Number of Times Runperiod to be Repeated

OS:Timestep,
  {677fc8f6-d28a-414a-86f4-edd9f6abb96f}, !- Handle
  6;                                      !- Number of Timesteps per Hour

OS:Building,
  {33e7e55e-f78e-40d6-92a8-d25de23961f8}, !- Handle
  Building 1,                             !- Name
  ,                                       !- Building Sector Type
  0,                                      !- North Axis {deg}
  ,                                       !- Nominal Floor to Floor Height {m}
  ,                                       !- Space Type Name
  ,                                       !- Default Construction Set Name
  ;                                       !- Default Schedule Set Name

OS:Site,
  {5a09cfd2-80e9-4d0d-8dc3-6cdf01c63db6}, !- Handle
  Toronto Int'l	CAN,                      !- Name
  43.67,                                  !- Latitude {deg}
  -79.63,                                 !- Longitude {deg}
  -5,                                     !- Time Zone {hr}
  173,                                    !- Elevation {m}
  City;                                   !- Terrain

OS:WeatherFile,
  {3ab3e7f4-b46a-45a3-b8e7-72d275110cea}, !- Handle
  Toronto Int'l,                          !- City
  ON,                                     !- State Province Region
  CAN,                                    !- Country
  WYEC2-B-04714,                          !- Data Source
  716240,                                 !- WMO Number
  43.67,                                  !- Latitude {deg}
  -79.63,                                 !- Longitude {deg}
  -5,                                     !- Time Zone {hr}
  173,                                    !- Elevation {m}
  file:///c:/ladybug/CAN_ON_Toronto.716240_CWEC/CAN_ON_Toronto.716240_CWEC.epw, !- Url
  3537CA94;                               !- Checksum

OS:SimulationControl,
  {f27c402f-90d1-48bc-b644-645c37989d44}, !- Handle
  Yes,                                    !- Do Zone Sizing Calculation
  Yes,                                    !- Do System Sizing Calculation
  Yes,                                    !- Do Plant Sizing Calculation
  No,                                     !- Run Simulation for Sizing Periods
  Yes,                                    !- Run Simulation for Weather File Run Periods
  ,                                       !- Loads Convergence Tolerance Value
  ,                                       !- Temperature Convergence Tolerance Value {deltaC}
  FullInteriorAndExteriorWithReflections; !- Solar Distribution

OS:ShadowCalculation,
  {786f32ce-8a8f-473f-916d-62399bc9785c}, !- Handle
  30,                                     !- Calculation Frequency
  3000;                                   !- Maximum Figures in Shadow Overlap Calculations

OS:Sizing:Parameters,
  {3cded763-944d-4fb7-a1cb-d3cb61dab5be}, !- Handle
  1.25,                                   !- Heating Sizing Factor
  1.15;                                   !- Cooling Sizing Factor

OS:SizingPeriod:DesignDay,
  {da816fd6-e444-485e-a099-fe6c3389bc6c}, !- Handle
  Toronto Int'l Ann Htg 99.6% Condns DB,  !- Name
  -18.8,                                  !- Maximum Dry-Bulb Temperature {C}
  0,                                      !- Daily Dry-Bulb Temperature Range {deltaC}
  -18.8,                                  !- Humidity Indicating Conditions at Maximum Dry-Bulb
  99264,                                  !- Barometric Pressure {Pa}
  4.3,                                    !- Wind Speed {m/s}
  340,                                    !- Wind Direction {deg}
  0,                                      !- Sky Clearness
  0,                                      !- Rain Indicator
  0,                                      !- Snow Indicator
  21,                                     !- Day of Month
  1,                                      !- Month
  WinterDesignDay,                        !- Day Type
  0,                                      !- Daylight Saving Time Indicator
  Wetbulb,                                !- Humidity Indicating Type
  ,                                       !- Humidity Indicating Day Schedule Name
  DefaultMultipliers,                     !- Dry-Bulb Temperature Range Modifier Type
  ,                                       !- Dry-Bulb Temperature Range Modifier Schedule Name
  ASHRAEClearSky;                         !- Solar Model Indicator

OS:SizingPeriod:DesignDay,
  {19b608d2-6b7e-4788-8467-02ada460be89}, !- Handle
  Toronto Int'l Ann Hum_n 99.6% Condns DP=>MCDB, !- Name
  -18.3,                                  !- Maximum Dry-Bulb Temperature {C}
  0,                                      !- Daily Dry-Bulb Temperature Range {deltaC}
  -23.6,                                  !- Humidity Indicating Conditions at Maximum Dry-Bulb
  99264,                                  !- Barometric Pressure {Pa}
  4.3,                                    !- Wind Speed {m/s}
  340,                                    !- Wind Direction {deg}
  0,                                      !- Sky Clearness
  0,                                      !- Rain Indicator
  0,                                      !- Snow Indicator
  21,                                     !- Day of Month
  1,                                      !- Month
  WinterDesignDay,                        !- Day Type
  0,                                      !- Daylight Saving Time Indicator
  Dewpoint,                               !- Humidity Indicating Type
  ,                                       !- Humidity Indicating Day Schedule Name
  DefaultMultipliers,                     !- Dry-Bulb Temperature Range Modifier Type
  ,                                       !- Dry-Bulb Temperature Range Modifier Schedule Name
  ASHRAEClearSky;                         !- Solar Model Indicator

OS:SizingPeriod:DesignDay,
  {e437b8db-232e-4b39-955c-840f911e19d1}, !- Handle
  Toronto Int'l Ann Clg .4% Condns WB=>MDB, !- Name
  29,                                     !- Maximum Dry-Bulb Temperature {C}
  10.2,                                   !- Daily Dry-Bulb Temperature Range {deltaC}
  23.6,                                   !- Humidity Indicating Conditions at Maximum Dry-Bulb
  99264,                                  !- Barometric Pressure {Pa}
  5.8,                                    !- Wind Speed {m/s}
  270,                                    !- Wind Direction {deg}
  0,                                      !- Sky Clearness
  0,                                      !- Rain Indicator
  0,                                      !- Snow Indicator
  21,                                     !- Day of Month
  7,                                      !- Month
  SummerDesignDay,                        !- Day Type
  0,                                      !- Daylight Saving Time Indicator
  Wetbulb,                                !- Humidity Indicating Type
  ,                                       !- Humidity Indicating Day Schedule Name
  DefaultMultipliers,                     !- Dry-Bulb Temperature Range Modifier Type
  ,                                       !- Dry-Bulb Temperature Range Modifier Schedule Name
  ASHRAETau,                              !- Solar Model Indicator
  ,                                       !- Beam Solar Day Schedule Name
  ,                                       !- Diffuse Solar Day Schedule Name
  0.473,                                  !- ASHRAE Taub {dimensionless}
  1.952;                                  !- ASHRAE Taud {dimensionless}

OS:SizingPeriod:DesignDay,
  {bab926ff-6218-4ae1-a211-b8868aed49f9}, !- Handle
  Toronto Int'l Ann Htg Wind 99.6% Condns WS=>MCDB, !- Name
  -6.9,                                   !- Maximum Dry-Bulb Temperature {C}
  0,                                      !- Daily Dry-Bulb Temperature Range {deltaC}
  -6.9,                                   !- Humidity Indicating Conditions at Maximum Dry-Bulb
  99264,                                  !- Barometric Pressure {Pa}
  14,                                     !- Wind Speed {m/s}
  340,                                    !- Wind Direction {deg}
  0,                                      !- Sky Clearness
  0,                                      !- Rain Indicator
  0,                                      !- Snow Indicator
  21,                                     !- Day of Month
  1,                                      !- Month
  WinterDesignDay,                        !- Day Type
  0,                                      !- Daylight Saving Time Indicator
  Wetbulb,                                !- Humidity Indicating Type
  ,                                       !- Humidity Indicating Day Schedule Name
  DefaultMultipliers,                     !- Dry-Bulb Temperature Range Modifier Type
  ,                                       !- Dry-Bulb Temperature Range Modifier Schedule Name
  ASHRAEClearSky;                         !- Solar Model Indicator

OS:SizingPeriod:DesignDay,
  {565881ad-142d-4fa6-85e6-99a3f9a1d825}, !- Handle
  Toronto Int'l Ann Clg .4% Condns DB=>MWB, !- Name
  31.2,                                   !- Maximum Dry-Bulb Temperature {C}
  10.2,                                   !- Daily Dry-Bulb Temperature Range {deltaC}
  22.2,                                   !- Humidity Indicating Conditions at Maximum Dry-Bulb
  99264,                                  !- Barometric Pressure {Pa}
  5.8,                                    !- Wind Speed {m/s}
  270,                                    !- Wind Direction {deg}
  0,                                      !- Sky Clearness
  0,                                      !- Rain Indicator
  0,                                      !- Snow Indicator
  21,                                     !- Day of Month
  7,                                      !- Month
  SummerDesignDay,                        !- Day Type
  0,                                      !- Daylight Saving Time Indicator
  Wetbulb,                                !- Humidity Indicating Type
  ,                                       !- Humidity Indicating Day Schedule Name
  DefaultMultipliers,                     !- Dry-Bulb Temperature Range Modifier Type
  ,                                       !- Dry-Bulb Temperature Range Modifier Schedule Name
  ASHRAETau,                              !- Solar Model Indicator
  ,                                       !- Beam Solar Day Schedule Name
  ,                                       !- Diffuse Solar Day Schedule Name
  0.473,                                  !- ASHRAE Taub {dimensionless}
  1.952;                                  !- ASHRAE Taud {dimensionless}

OS:SizingPeriod:DesignDay,
  {7cbef80e-2ee8-4de2-a83c-cc5924463d5d}, !- Handle
  Toronto Int'l Ann Clg .4% Condns DP=>MDB, !- Name
  26.5,                                   !- Maximum Dry-Bulb Temperature {C}
  10.2,                                   !- Daily Dry-Bulb Temperature Range {deltaC}
  21.9,                                   !- Humidity Indicating Conditions at Maximum Dry-Bulb
  99264,                                  !- Barometric Pressure {Pa}
  5.8,                                    !- Wind Speed {m/s}
  270,                                    !- Wind Direction {deg}
  0,                                      !- Sky Clearness
  0,                                      !- Rain Indicator
  0,                                      !- Snow Indicator
  21,                                     !- Day of Month
  7,                                      !- Month
  SummerDesignDay,                        !- Day Type
  0,                                      !- Daylight Saving Time Indicator
  Dewpoint,                               !- Humidity Indicating Type
  ,                                       !- Humidity Indicating Day Schedule Name
  DefaultMultipliers,                     !- Dry-Bulb Temperature Range Modifier Type
  ,                                       !- Dry-Bulb Temperature Range Modifier Schedule Name
  ASHRAETau,                              !- Solar Model Indicator
  ,                                       !- Beam Solar Day Schedule Name
  ,                                       !- Diffuse Solar Day Schedule Name
  0.473,                                  !- ASHRAE Taub {dimensionless}
  1.952;                                  !- ASHRAE Taud {dimensionless}

OS:SizingPeriod:DesignDay,
  {aae20913-0d38-46ee-9ea1-13483fd579fe}, !- Handle
  Toronto Int'l Ann Clg .4% Condns Enth=>MDB, !- Name
  29.1,                                   !- Maximum Dry-Bulb Temperature {C}
  10.2,                                   !- Daily Dry-Bulb Temperature Range {deltaC}
  71300,                                  !- Humidity Indicating Conditions at Maximum Dry-Bulb
  99264,                                  !- Barometric Pressure {Pa}
  5.8,                                    !- Wind Speed {m/s}
  270,                                    !- Wind Direction {deg}
  0,                                      !- Sky Clearness
  0,                                      !- Rain Indicator
  0,                                      !- Snow Indicator
  21,                                     !- Day of Month
  7,                                      !- Month
  SummerDesignDay,                        !- Day Type
  0,                                      !- Daylight Saving Time Indicator
  Enthalpy,                               !- Humidity Indicating Type
  ,                                       !- Humidity Indicating Day Schedule Name
  DefaultMultipliers,                     !- Dry-Bulb Temperature Range Modifier Type
  ,                                       !- Dry-Bulb Temperature Range Modifier Schedule Name
  ASHRAETau,                              !- Solar Model Indicator
  ,                                       !- Beam Solar Day Schedule Name
  ,                                       !- Diffuse Solar Day Schedule Name
  0.473,                                  !- ASHRAE Taub {dimensionless}
  1.952;                                  !- ASHRAE Taud {dimensionless}

OS:BuildingStory,
  {19e1942f-8086-4366-b443-594d5602e11b}, !- Handle
  Building Story 1,                       !- Name
  0,                                      !- Nominal Z Coordinate {m}
  ,                                       !- Nominal Floor to Floor Height {m}
  ,                                       !- Default Construction Set Name
  ,                                       !- Default Schedule Set Name
  ;                                       !- Group Rendering Name

OS:WindowMaterial:Glazing,
  {135e3ccf-8ec5-45b4-bf70-e44f1a7e1578}, !- Handle
  Clear 3mm,                              !- Name
  SpectralAverage,                        !- Optical Data Type
  ,                                       !- Window Glass Spectral Data Set Name
  0.00299999999999999,                    !- Thickness {m}
  0.837,                                  !- Solar Transmittance at Normal Incidence
  0.075,                                  !- Front Side Solar Reflectance at Normal Incidence
  0,                                      !- Back Side Solar Reflectance at Normal Incidence
  0.898,                                  !- Visible Transmittance at Normal Incidence
  0.081,                                  !- Front Side Visible Reflectance at Normal Incidence
  0,                                      !- Back Side Visible Reflectance at Normal Incidence
  0,                                      !- Infrared Transmittance at Normal Incidence
  0.84,                                   !- Front Side Infrared Hemispherical Emissivity
  0.84,                                   !- Back Side Infrared Hemispherical Emissivity
  0.9,                                    !- Conductivity {W/m-K}
  1;                                      !- Dirt Correction Factor for Solar and Visible Transmittance

OS:WindowMaterial:Gas,
  {7c92b2b0-d929-4ee1-a90c-e466d29673a0}, !- Handle
  Air 13mm,                               !- Name
  Air,                                    !- Gas Type
  0.0127;                                 !- Thickness {m}

OS:Construction,
  {3eaca2b4-d052-44d7-9f1a-7f3c6afb5fa9}, !- Handle
  Exterior Window,                        !- Name
  ,                                       !- Surface Rendering Name
  {135e3ccf-8ec5-45b4-bf70-e44f1a7e1578}, !- Layer 1
  {7c92b2b0-d929-4ee1-a90c-e466d29673a0}, !- Layer 2
  {135e3ccf-8ec5-45b4-bf70-e44f1a7e1578}; !- Layer 3

OS:Material,
  {3fe06f51-8ce3-4362-9088-fcd25c573dca}, !- Handle
  F16 Acoustic tile,                      !- Name
  MediumSmooth,                           !- Roughness
  0.0191,                                 !- Thickness {m}
  0.06,                                   !- Conductivity {W/m-K}
  368,                                    !- Density {kg/m3}
  590.000000000002,                       !- Specific Heat {J/kg-K}
  0.9,                                    !- Thermal Absorptance
  0.3,                                    !- Solar Absorptance
  0.3;                                    !- Visible Absorptance

OS:Material:AirGap,
  {7a082a28-13fc-498f-bb19-3b630614feb3}, !- Handle
  Material Air Gap 1,                     !- Name
  0.18;                                   !- Thermal Resistance {m2-K/W}

OS:Material,
  {cc5f3633-d01f-4dab-b3e1-3de6508599d1}, !- Handle
  M11 100mm lightweight concrete,         !- Name
  MediumRough,                            !- Roughness
  0.1016,                                 !- Thickness {m}
  0.53,                                   !- Conductivity {W/m-K}
  1280,                                   !- Density {kg/m3}
  840.000000000002,                       !- Specific Heat {J/kg-K}
  0.9,                                    !- Thermal Absorptance
  0.5,                                    !- Solar Absorptance
  0.5;                                    !- Visible Absorptance

OS:Construction,
  {62e01b7b-2b51-4a8b-9675-da627facce11}, !- Handle
  Interior Floor,                         !- Name
  ,                                       !- Surface Rendering Name
  {3fe06f51-8ce3-4362-9088-fcd25c573dca}, !- Layer 1
  {7a082a28-13fc-498f-bb19-3b630614feb3}, !- Layer 2
  {cc5f3633-d01f-4dab-b3e1-3de6508599d1}; !- Layer 3

OS:Material,
  {55c1f643-7f3c-42bb-9d3d-220fcaea1346}, !- Handle
  G01a 19mm gypsum board,                 !- Name
  MediumSmooth,                           !- Roughness
  0.019,                                  !- Thickness {m}
  0.16,                                   !- Conductivity {W/m-K}
  800,                                    !- Density {kg/m3}
  1090,                                   !- Specific Heat {J/kg-K}
  0.9,                                    !- Thermal Absorptance
  0.4,                                    !- Solar Absorptance
  0.4;                                    !- Visible Absorptance

OS:Material:AirGap,
  {3b05c474-7d21-4b0f-b9e6-a5a0c8ecc952}, !- Handle
  Material Air Gap 2,                     !- Name
  0.15;                                   !- Thermal Resistance {m2-K/W}

OS:Construction,
  {85c23f8a-ab5a-430e-8246-e56fdff97392}, !- Handle
  Interior Wall,                          !- Name
  ,                                       !- Surface Rendering Name
  {55c1f643-7f3c-42bb-9d3d-220fcaea1346}, !- Layer 1
  {3b05c474-7d21-4b0f-b9e6-a5a0c8ecc952}, !- Layer 2
  {55c1f643-7f3c-42bb-9d3d-220fcaea1346}; !- Layer 3

OS:Material,
  {7220e1f9-5eb1-401b-9154-951f09e44b90}, !- Handle
  M01 100mm brick,                        !- Name
  MediumRough,                            !- Roughness
  0.1016,                                 !- Thickness {m}
  0.89,                                   !- Conductivity {W/m-K}
  1920,                                   !- Density {kg/m3}
  790,                                    !- Specific Heat {J/kg-K}
  0.9,                                    !- Thermal Absorptance
  0.7,                                    !- Solar Absorptance
  0.7;                                    !- Visible Absorptance

OS:Material,
  {c323b573-e0ce-480f-b66c-037f2731e6aa}, !- Handle
  M15 200mm heavyweight concrete,         !- Name
  MediumRough,                            !- Roughness
  0.2032,                                 !- Thickness {m}
  1.95,                                   !- Conductivity {W/m-K}
  2240,                                   !- Density {kg/m3}
  900,                                    !- Specific Heat {J/kg-K}
  0.9,                                    !- Thermal Absorptance
  0.7,                                    !- Solar Absorptance
  0.7;                                    !- Visible Absorptance

OS:Material,
  {bcc11658-08f9-4681-82f2-694c1fee5e32}, !- Handle
  I02 50mm insulation board,              !- Name
  MediumRough,                            !- Roughness
  0.0508,                                 !- Thickness {m}
  0.03,                                   !- Conductivity {W/m-K}
  43,                                     !- Density {kg/m3}
  1210,                                   !- Specific Heat {J/kg-K}
  0.9,                                    !- Thermal Absorptance
  0.7,                                    !- Solar Absorptance
  0.7;                                    !- Visible Absorptance

OS:Construction,
  {b4cab0f0-2a0a-4727-b890-cf74f2059800}, !- Handle
  Exterior Wall,                          !- Name
  ,                                       !- Surface Rendering Name
  {7220e1f9-5eb1-401b-9154-951f09e44b90}, !- Layer 1
  {c323b573-e0ce-480f-b66c-037f2731e6aa}, !- Layer 2
  {bcc11658-08f9-4681-82f2-694c1fee5e32}, !- Layer 3
  {3b05c474-7d21-4b0f-b9e6-a5a0c8ecc952}, !- Layer 4
  {55c1f643-7f3c-42bb-9d3d-220fcaea1346}; !- Layer 5

OS:Construction,
  {25694ce0-c16f-4a2d-8856-3a53a2e952f6}, !- Handle
  Exterior Roof,                          !- Name
  ,                                       !- Surface Rendering Name
  {cc5f3633-d01f-4dab-b3e1-3de6508599d1}, !- Layer 1
  {7a082a28-13fc-498f-bb19-3b630614feb3}, !- Layer 2
  {3fe06f51-8ce3-4362-9088-fcd25c573dca}; !- Layer 3

OS:DefaultConstructionSet,
  {76350ccf-39e1-43bd-a54b-eb4a315502bf}, !- Handle
  Default Construction Set 1,             !- Name
  {c4f8a2f2-db5a-44ef-a4a5-fcafb75b3f6c}, !- Default Exterior Surface Constructions Name
  {d5ad16ea-9844-4b6f-b813-b347171e9db6}, !- Default Interior Surface Constructions Name
  {770529e3-7ef2-45d5-a686-34dab396bd95}, !- Default Ground Contact Surface Constructions Name
  {0ea84bb1-c1f3-40c8-ade3-0b71eb3f016f}, !- Default Exterior SubSurface Constructions Name
  {e85a5ad0-2d57-4e0f-9a55-f07fafa4af0f}, !- Default Interior SubSurface Constructions Name
  ,                                       !- Interior Partition Construction Name
  ,                                       !- Space Shading Construction Name
  ,                                       !- Building Shading Construction Name
  ;                                       !- Site Shading Construction Name

OS:DefaultSurfaceConstructions,
  {c4f8a2f2-db5a-44ef-a4a5-fcafb75b3f6c}, !- Handle
  Default Surface Constructions 1,        !- Name
  ,                                       !- Floor Construction Name
  {b4cab0f0-2a0a-4727-b890-cf74f2059800}, !- Wall Construction Name
  {25694ce0-c16f-4a2d-8856-3a53a2e952f6}; !- Roof Ceiling Construction Name

OS:DefaultSurfaceConstructions,
  {d5ad16ea-9844-4b6f-b813-b347171e9db6}, !- Handle
  Default Surface Constructions 2,        !- Name
  ,                                       !- Floor Construction Name
  {85c23f8a-ab5a-430e-8246-e56fdff97392}, !- Wall Construction Name
  ;                                       !- Roof Ceiling Construction Name

OS:DefaultSurfaceConstructions,
  {770529e3-7ef2-45d5-a686-34dab396bd95}, !- Handle
  Default Surface Constructions 3,        !- Name
  {62e01b7b-2b51-4a8b-9675-da627facce11}, !- Floor Construction Name
  ,                                       !- Wall Construction Name
  ;                                       !- Roof Ceiling Construction Name

OS:DefaultSubSurfaceConstructions,
  {0ea84bb1-c1f3-40c8-ade3-0b71eb3f016f}, !- Handle
  Default Sub Surface Constructions 1,    !- Name
  {3eaca2b4-d052-44d7-9f1a-7f3c6afb5fa9}, !- Fixed Window Construction Name
  ,                                       !- Operable Window Construction Name
  ,                                       !- Door Construction Name
  ,                                       !- Glass Door Construction Name
  ,                                       !- Overhead Door Construction Name
  ,                                       !- Skylight Construction Name
  ,                                       !- Tubular Daylight Dome Construction Name
  ;                                       !- Tubular Daylight Diffuser Construction Name

OS:DefaultSubSurfaceConstructions,
  {e85a5ad0-2d57-4e0f-9a55-f07fafa4af0f}, !- Handle
  Default Sub Surface Constructions 2,    !- Name
  ,                                       !- Fixed Window Construction Name
  ,                                       !- Operable Window Construction Name
  ,                                       !- Door Construction Name
  ,                                       !- Glass Door Construction Name
  ,                                       !- Overhead Door Construction Name
  ,                                       !- Skylight Construction Name
  ,                                       !- Tubular Daylight Dome Construction Name
  ;                                       !- Tubular Daylight Diffuser Construction Name

OS:Space,
  {e00046d8-94ac-44fc-9f0a-6db118dcb996}, !- Handle
  zone_5_space,                           !- Name
  {0e0465c9-8f78-4540-83be-1f95e9b25f21}, !- Space Type Name
  {76350ccf-39e1-43bd-a54b-eb4a315502bf}, !- Default Construction Set Name
  ,                                       !- Default Schedule Set Name
  ,                                       !- Direction of Relative North {deg}
  ,                                       !- X Origin {m}
  ,                                       !- Y Origin {m}
  ,                                       !- Z Origin {m}
  {19e1942f-8086-4366-b443-594d5602e11b}, !- Building Story Name
  {b0aaa3e7-34ef-48f2-ae59-229089e8d4d4}; !- Thermal Zone Name

OS:SpaceType,
  {0e0465c9-8f78-4540-83be-1f95e9b25f21}, !- Handle
  Office:ClosedOffice:zone_5,             !- Name
  ,                                       !- Default Construction Set Name
  {58d17a7a-0fbb-4193-9a98-d517a62f68a2}, !- Default Schedule Set Name
  ,                                       !- Group Rendering Name
  {2d6a7f6e-838a-44ec-b767-2aa995cce73b}; !- Design Specification Outdoor Air Object Name

OS:DefaultScheduleSet,
  {58d17a7a-0fbb-4193-9a98-d517a62f68a2}, !- Handle
  zone_5_DefaultScheduleSet,              !- Name
  {f55d186d-73a1-4621-8906-56056662cd18}, !- Hours of Operation Schedule Name
  ,                                       !- Number of People Schedule Name
  {d47b3b13-b975-4f1e-85d1-787caace5a8d}, !- People Activity Level Schedule Name
  {77fd6bac-3341-49ec-b2f8-2273e3093a2d}, !- Lighting Schedule Name
  {ff397ed7-342c-481a-b18c-21e4aa6f5230}, !- Electric Equipment Schedule Name
  ,                                       !- Gas Equipment Schedule Name
  ,                                       !- Hot Water Equipment Schedule Name
  {d7eaa22e-9620-4357-a8fa-291fe99f8e1f}, !- Infiltration Schedule Name
  ,                                       !- Steam Equipment Schedule Name
  ;                                       !- Other Equipment Schedule Name

OS:ScheduleTypeLimits,
  {b1d3f623-234e-4259-80a1-0d490fe7574b}, !- Handle
  Schedule Type Limits 1,                 !- Name
  0,                                      !- Lower Limit Value
  1,                                      !- Upper Limit Value
  CONTINUOUS;                             !- Numeric Type

OS:Schedule:Year,
  {d7eaa22e-9620-4357-a8fa-291fe99f8e1f}, !- Handle
  Medium Office Infil Quarter On,         !- Name
  {b1d3f623-234e-4259-80a1-0d490fe7574b}, !- Schedule Type Limits Name
  1,                                      !- Month 1
  3,                                      !- Day 1
  {bfd43d68-17b7-40b8-a336-98e3f5d39ef7}, !- Week Schedule Until Date 1
  12,                                     !- Month 2
  31,                                     !- Day 2
  {883cbb33-e498-41fc-b688-c337c5e3fe20}; !- Week Schedule Until Date 2

OS:Schedule:Week,
  {bfd43d68-17b7-40b8-a336-98e3f5d39ef7}, !- Handle
  Schedule:Week:Daily {10ec3e5a-5294-46cc-8ada-f12e209007b8}, !- Name
  ,                                       !- Schedule Rendering Name
  {d48d2194-08e3-434c-9686-9e367fa3021a}, !- Sunday Schedule:Day Name
  {d48d2194-08e3-434c-9686-9e367fa3021a}, !- Monday Schedule:Day Name
  {d48d2194-08e3-434c-9686-9e367fa3021a}, !- Tuesday Schedule:Day Name
  {d48d2194-08e3-434c-9686-9e367fa3021a}, !- Wednesday Schedule:Day Name
  {d48d2194-08e3-434c-9686-9e367fa3021a}, !- Thursday Schedule:Day Name
  {d48d2194-08e3-434c-9686-9e367fa3021a}, !- Friday Schedule:Day Name
  {89c429ed-1ad0-41bf-a6ed-09d62c82f8e1}, !- Saturday Schedule:Day Name